Circuit: * H:\StarJar\PulseTimingCircuit.asc

Instance "m:u2:6": Length shorter than recommended for a level 2 MOSFET.
Instance "m:u2:5": Length shorter than recommended for a level 2 MOSFET.
Direct Newton iteration failed to find .op point.  (Use ".option noopiter" to skip.)
Starting Gmin stepping
Gmin = 10
Gmin = 1.07374
Gmin = 0.115292
Gmin = 0.0123794
Gmin = 0.00132923
vernier = 0.5
vernier = 0.25
vernier = 0.125
vernier = 0.0625
Gmin = 0.00100083
vernier = 0.03125
vernier = 0.015625
vernier = 0.0078125
vernier = 0.00390625
vernier = 0.00195313
Gmin = 0.00100083
vernier = 0.000976563
vernier = 0.000488281
Gmin = 0
Gmin stepping failed

Starting source stepping with srcstepmethod=0
Source Step = 3.0303%
Source Step = 33.3333%
Source Step = 63.6364%
Source Step = 93.9394%
Source stepping succeeded in finding the operating point.

.step r=11
.step r=21
.step r=31
.step r=41
.step r=51
.step r=61
.step r=71
.step r=81
.step r=91
.step r=100

Date: Mon Oct 16 15:07:32 2017
Total elapsed time: 1.787 seconds.

tnom = 27
temp = 27
method = modified trap
totiter = 4754
traniter = 2946
tranpoints = 1341
accept = 1267
rejected = 74
matrix size = 41
fillins = 33
solver = Normal
Matrix Compiler1: 3.15 KB object code size  0.9/0.4/[0.2]
Matrix Compiler2: off  [0.4]/0.6/0.5

